54

N        -1.179000    4.987000    0.000000
N         1.169000    4.987000    0.000000
N        -0.005000    7.021000    0.000000
C        -1.204000    6.358000    0.000000
C        -0.005000    4.282000    0.000000
C         1.194000    6.357000    0.000000
O        -2.247000    6.961000    0.000000
O        -0.005000    3.075000    0.000000
O         2.239000    6.960000    0.000000
N        -4.850000    1.465000    0.000000
N        -3.657000    3.529000    0.000000
N        -7.250000    1.477000    0.000000
N        -2.492000    1.479000    0.000000
N        -4.868000    5.604000    0.000000
C        -6.038000    2.127000    0.000000
C        -3.681000    2.166000    0.000000
C        -4.825000    4.228000    0.000000
C        -6.049000    3.534000    0.000000
N        -3.696000   -3.449000    0.000000
N        -4.870000   -1.416000    0.000000
N        -6.044000   -3.449000    0.000000
C        -4.871000   -4.156000    0.000000
C        -3.672000   -2.080000    0.000000
C        -6.069000   -2.079000    0.000000
O        -4.871000   -5.361000    0.000000
O        -2.627000   -1.476000    0.000000
O        -7.113000   -1.476000    0.000000
N         4.869000   -1.411000    0.000000
N         3.695000   -3.444000    0.000000
N         6.043000   -3.444000    0.000000
C         6.068000   -2.074000    0.000000
C         3.671000   -2.075000    0.000000
C         4.868000   -4.151000    0.000000
O         7.112000   -1.473000    0.000000
O         2.626000   -1.471000    0.000000
O         4.868000   -5.357000    0.000000
N         1.190000   -4.867000    0.000000
N        -1.194000   -4.866000    0.000000
N         2.380000   -6.952000    0.000000
N        -0.001000   -2.832000    0.000000
N        -2.385000   -6.952000    0.000000
C         1.211000   -6.227000    0.000000
C        -0.002000   -4.205000    0.000000
C        -1.215000   -6.227000    0.000000
C        -0.002000   -6.940000    0.000000
N         3.654000    3.529000    0.000000
N         4.845000    1.464000    0.000000
N         4.864000    5.603000    0.000000
N         2.487000    1.481000    0.000000
N         7.247000    1.476000    0.000000
C         4.821000    4.228000    0.000000
C         3.676000    2.166000    0.000000
C         6.034000    2.127000    0.000000
C         6.045000    3.534000    0.000000
